!-Generator IDFEditor 1.53
!-Option SortedOrder

!-NOTE: All comments with '!-' are ignored by the IDFEditor and are generated automatically.
!-      Use '!' comments if they need to be retained when using the IDFEditor.


!-   ===========  ALL OBJECTS IN CLASS: VERSION ===========

Version,
    9.6;                     !- Version Identifier


!-   ===========  ALL OBJECTS IN CLASS: SIMULATIONCONTROL ===========

SimulationControl,
    Yes,                     !- Do Zone Sizing Calculation
    No,                      !- Do System Sizing Calculation
    No,                      !- Do Plant Sizing Calculation
    Yes,                     !- Run Simulation for Sizing Periods
    Yes,                     !- Run Simulation for Weather File Run Periods
    No,                      !- Do HVAC Sizing Simulation for Sizing Periods
    1;                       !- Maximum Number of HVAC Sizing Simulation Passes


!-   ===========  ALL OBJECTS IN CLASS: BUILDING ===========

Building,
    None,                    !- Name
    270,                     !- North Axis {deg}
    City,                    !- Terrain
    0.04,                    !- Loads Convergence Tolerance Value {W}
    0.4,                     !- Temperature Convergence Tolerance Value {deltaC}
    FullExterior,            !- Solar Distribution
    25,                      !- Maximum Number of Warmup Days
    6;                       !- Minimum Number of Warmup Days


!-   ===========  ALL OBJECTS IN CLASS: SURFACECONVECTIONALGORITHM:INSIDE ===========

SurfaceConvectionAlgorithm:Inside,
    TARP;                    !- Algorithm


!-   ===========  ALL OBJECTS IN CLASS: SURFACECONVECTIONALGORITHM:OUTSIDE ===========

SurfaceConvectionAlgorithm:Outside,
    SimpleCombined;          !- Algorithm


!-   ===========  ALL OBJECTS IN CLASS: TIMESTEP ===========

Timestep,
    12;                      !- Number of Timesteps per Hour


!-   ===========  ALL OBJECTS IN CLASS: SITE:LOCATION ===========

Site:Location,
    Potsdam,                 !- Name
    52.4958,                 !- Latitude {deg}
    13.0614,                 !- Longitude {deg}
    1,                       !- Time Zone {hr}
    32;                      !- Elevation {m}


!-   ===========  ALL OBJECTS IN CLASS: SIZINGPERIOD:DESIGNDAY ===========

SizingPeriod:DesignDay,
    DENVER_STAPLETON Ann Htg 99.6% Condns DB,  !- Name
    12,                      !- Month
    21,                      !- Day of Month
    WinterDesignDay,         !- Day Type
    -20,                     !- Maximum Dry-Bulb Temperature {C}
    0,                       !- Daily Dry-Bulb Temperature Range {deltaC}
    ,                        !- Dry-Bulb Temperature Range Modifier Type
    ,                        !- Dry-Bulb Temperature Range Modifier Day Schedule Name
    Wetbulb,                 !- Humidity Condition Type
    -20,                     !- Wetbulb or DewPoint at Maximum Dry-Bulb {C}
    ,                        !- Humidity Condition Day Schedule Name
    ,                        !- Humidity Ratio at Maximum Dry-Bulb {kgWater/kgDryAir}
    ,                        !- Enthalpy at Maximum Dry-Bulb {J/kg}
    ,                        !- Daily Wet-Bulb Temperature Range {deltaC}
    83411,                   !- Barometric Pressure {Pa}
    2.3,                     !- Wind Speed {m/s}
    180,                     !- Wind Direction {deg}
    No,                      !- Rain Indicator
    No,                      !- Snow Indicator
    No,                      !- Daylight Saving Time Indicator
    ASHRAEClearSky,          !- Solar Model Indicator
    ,                        !- Beam Solar Day Schedule Name
    ,                        !- Diffuse Solar Day Schedule Name
    ,                        !- ASHRAE Clear Sky Optical Depth for Beam Irradiance (taub) {dimensionless}
    ,                        !- ASHRAE Clear Sky Optical Depth for Diffuse Irradiance (taud) {dimensionless}
    0;                       !- Sky Clearness

SizingPeriod:DesignDay,
    DENVER_STAPLETON Ann Clg .4% Condns DB=>MWB,  !- Name
    7,                       !- Month
    21,                      !- Day of Month
    SummerDesignDay,         !- Day Type
    34.1,                    !- Maximum Dry-Bulb Temperature {C}
    15.2,                    !- Daily Dry-Bulb Temperature Range {deltaC}
    ,                        !- Dry-Bulb Temperature Range Modifier Type
    ,                        !- Dry-Bulb Temperature Range Modifier Day Schedule Name
    Wetbulb,                 !- Humidity Condition Type
    15.8,                    !- Wetbulb or DewPoint at Maximum Dry-Bulb {C}
    ,                        !- Humidity Condition Day Schedule Name
    ,                        !- Humidity Ratio at Maximum Dry-Bulb {kgWater/kgDryAir}
    ,                        !- Enthalpy at Maximum Dry-Bulb {J/kg}
    ,                        !- Daily Wet-Bulb Temperature Range {deltaC}
    83411,                   !- Barometric Pressure {Pa}
    4,                       !- Wind Speed {m/s}
    120,                     !- Wind Direction {deg}
    No,                      !- Rain Indicator
    No,                      !- Snow Indicator
    No,                      !- Daylight Saving Time Indicator
    ASHRAEClearSky,          !- Solar Model Indicator
    ,                        !- Beam Solar Day Schedule Name
    ,                        !- Diffuse Solar Day Schedule Name
    ,                        !- ASHRAE Clear Sky Optical Depth for Beam Irradiance (taub) {dimensionless}
    ,                        !- ASHRAE Clear Sky Optical Depth for Diffuse Irradiance (taud) {dimensionless}
    1;                       !- Sky Clearness


!-   ===========  ALL OBJECTS IN CLASS: RUNPERIOD ===========

RunPeriod,
    Run Period 1,            !- Name
    1,                       !- Begin Month
    1,                       !- Begin Day of Month
    ,                        !- Begin Year
    12,                      !- End Month
    31,                      !- End Day of Month
    ,                        !- End Year
    Tuesday,                 !- Day of Week for Start Day
    Yes,                     !- Use Weather File Holidays and Special Days
    Yes,                     !- Use Weather File Daylight Saving Period
    No,                      !- Apply Weekend Holiday Rule
    Yes,                     !- Use Weather File Rain Indicators
    Yes;                     !- Use Weather File Snow Indicators


!-   ===========  ALL OBJECTS IN CLASS: SITE:GROUNDTEMPERATURE:BUILDINGSURFACE ===========

Site:GroundTemperature:BuildingSurface,
    18,                      !- January Ground Temperature {C}
    18,                      !- February Ground Temperature {C}
    18,                      !- March Ground Temperature {C}
    18,                      !- April Ground Temperature {C}
    18,                      !- May Ground Temperature {C}
    18,                      !- June Ground Temperature {C}
    18,                      !- July Ground Temperature {C}
    18,                      !- August Ground Temperature {C}
    18,                      !- September Ground Temperature {C}
    18,                      !- October Ground Temperature {C}
    18,                      !- November Ground Temperature {C}
    18;                      !- December Ground Temperature {C}


!-   ===========  ALL OBJECTS IN CLASS: SCHEDULETYPELIMITS ===========

ScheduleTypeLimits,
    Fraction,                !- Name
    0.0,                     !- Lower Limit Value
    1.0,                     !- Upper Limit Value
    Continuous;              !- Numeric Type

ScheduleTypeLimits,
    On/Off,                  !- Name
    0.0,                     !- Lower Limit Value
    1.0,                     !- Upper Limit Value
    Discrete;                !- Numeric Type

ScheduleTypeLimits,
    Temperature,             !- Name
    ,                        !- Lower Limit Value
    ,                        !- Upper Limit Value
    ,                        !- Numeric Type
    Dimensionless;           !- Unit Type

ScheduleTypeLimits,
    Any Number,              !- Name
    ,                        !- Lower Limit Value
    ,                        !- Upper Limit Value
    ,                        !- Numeric Type
    Dimensionless;           !- Unit Type


!-   ===========  ALL OBJECTS IN CLASS: SCHEDULE:DAY:HOURLY ===========

Schedule:Day:Hourly,
    Schedule Heating Bed room,  !- Name
    Temperature,             !- Schedule Type Limits Name
    22,                      !- Hour 1
    22,                      !- Hour 2
    22,                      !- Hour 3
    22,                      !- Hour 4
    22,                      !- Hour 5
    22,                      !- Hour 6
    22,                      !- Hour 7
    22,                      !- Hour 8
    22,                      !- Hour 9
    22,                      !- Hour 10
    22,                      !- Hour 11
    22,                      !- Hour 12
    22,                      !- Hour 13
    22,                      !- Hour 14
    22,                      !- Hour 15
    22,                      !- Hour 16
    22,                      !- Hour 17
    22,                      !- Hour 18
    22,                      !- Hour 19
    22,                      !- Hour 20
    22,                      !- Hour 21
    22,                      !- Hour 22
    22,                      !- Hour 23
    22;                      !- Hour 24

Schedule:Day:Hourly,
    Schedule Cooling Bed room,  !- Name
    Temperature,             !- Schedule Type Limits Name
    22,                      !- Hour 1
    22,                      !- Hour 2
    22,                      !- Hour 3
    22,                      !- Hour 4
    22,                      !- Hour 5
    22,                      !- Hour 6
    22,                      !- Hour 7
    22,                      !- Hour 8
    22,                      !- Hour 9
    22,                      !- Hour 10
    22,                      !- Hour 11
    22,                      !- Hour 12
    22,                      !- Hour 13
    22,                      !- Hour 14
    22,                      !- Hour 15
    22,                      !- Hour 16
    22,                      !- Hour 17
    22,                      !- Hour 18
    22,                      !- Hour 19
    22,                      !- Hour 20
    22,                      !- Hour 21
    22,                      !- Hour 22
    22,                      !- Hour 23
    22;                      !- Hour 24

Schedule:Day:Hourly,
    Schedule People Bed room,!- Name
    Fraction,                !- Schedule Type Limits Name
    1,                       !- Hour 1
    1,                       !- Hour 2
    1,                       !- Hour 3
    1,                       !- Hour 4
    1,                       !- Hour 5
    1,                       !- Hour 6
    1,                       !- Hour 7
    1,                       !- Hour 8
    1,                       !- Hour 9
    1,                       !- Hour 10
    1,                       !- Hour 11
    1,                       !- Hour 12
    1,                       !- Hour 13
    1,                       !- Hour 14
    1,                       !- Hour 15
    1,                       !- Hour 16
    1,                       !- Hour 17
    1,                       !- Hour 18
    1,                       !- Hour 19
    1,                       !- Hour 20
    1,                       !- Hour 21
    1,                       !- Hour 22
    1,                       !- Hour 23
    1;                       !- Hour 24

Schedule:Day:Hourly,
    Schedule Equipment Bed room,  !- Name
    Fraction,                !- Schedule Type Limits Name
    0.2,                     !- Hour 1
    0.2,                     !- Hour 2
    0.2,                     !- Hour 3
    0.2,                     !- Hour 4
    0.2,                     !- Hour 5
    0.2,                     !- Hour 6
    0.2,                     !- Hour 7
    0.2,                     !- Hour 8
    0.2,                     !- Hour 9
    0.2,                     !- Hour 10
    0.2,                     !- Hour 11
    0.2,                     !- Hour 12
    0.2,                     !- Hour 13
    0.2,                     !- Hour 14
    0.2,                     !- Hour 15
    0.2,                     !- Hour 16
    0.2,                     !- Hour 17
    0.2,                     !- Hour 18
    0.2,                     !- Hour 19
    0.8,                     !- Hour 20
    0.6,                     !- Hour 21
    0.4,                     !- Hour 22
    0.2,                     !- Hour 23
    0.2;                     !- Hour 24

Schedule:Day:Hourly,
    Schedule Lighting Bed room,  !- Name
    Fraction,                !- Schedule Type Limits Name
    0,                       !- Hour 1
    0,                       !- Hour 2
    0,                       !- Hour 3
    0,                       !- Hour 4
    0,                       !- Hour 5
    0,                       !- Hour 6
    1,                       !- Hour 7
    1,                       !- Hour 8
    1,                       !- Hour 9
    1,                       !- Hour 10
    1,                       !- Hour 11
    1,                       !- Hour 12
    1,                       !- Hour 13
    1,                       !- Hour 14
    1,                       !- Hour 15
    1,                       !- Hour 16
    1,                       !- Hour 17
    1,                       !- Hour 18
    0,                       !- Hour 19
    0,                       !- Hour 20
    0,                       !- Hour 21
    0,                       !- Hour 22
    0,                       !- Hour 23
    0;                       !- Hour 24


!-   ===========  ALL OBJECTS IN CLASS: SCHEDULE:WEEK:COMPACT ===========

Schedule:Week:Compact,
    Schedule Heating Bed room,  !- Name
    AllDays,                 !- DayType List 1
    Schedule Heating Bed room;  !- Schedule:Day Name 1

Schedule:Week:Compact,
    Schedule Cooling Bed room,  !- Name
    AllDays,                 !- DayType List 1
    Schedule Cooling Bed room;  !- Schedule:Day Name 1

Schedule:Week:Compact,
    Schedule People Bed room,!- Name
    AllDays,                 !- DayType List 1
    Schedule People Bed room;!- Schedule:Day Name 1

Schedule:Week:Compact,
    Schedule Equipment Bed room,  !- Name
    AllDays,                 !- DayType List 1
    Schedule Equipment Bed room;  !- Schedule:Day Name 1

Schedule:Week:Compact,
    Schedule Lighting Bed room,  !- Name
    AllDays,                 !- DayType List 1
    Schedule Lighting Bed room;  !- Schedule:Day Name 1


!-   ===========  ALL OBJECTS IN CLASS: SCHEDULE:YEAR ===========

Schedule:Year,
    Schedule Heating Bed room,  !- Name
    Temperature,             !- Schedule Type Limits Name
    Schedule Heating Bed room,  !- Schedule:Week Name 1
    1,                       !- Start Month 1
    1,                       !- Start Day 1
    12,                      !- End Month 1
    31;                      !- End Day 1

Schedule:Year,
    Schedule Cooling Bed room,  !- Name
    Temperature,             !- Schedule Type Limits Name
    Schedule Cooling Bed room,  !- Schedule:Week Name 1
    1,                       !- Start Month 1
    1,                       !- Start Day 1
    12,                      !- End Month 1
    31;                      !- End Day 1

Schedule:Year,
    Schedule People Bed room,!- Name
    Fraction,                !- Schedule Type Limits Name
    Schedule People Bed room,!- Schedule:Week Name 1
    1,                       !- Start Month 1
    1,                       !- Start Day 1
    12,                      !- End Month 1
    31;                      !- End Day 1

Schedule:Year,
    Schedule Equipment Bed room,  !- Name
    Fraction,                !- Schedule Type Limits Name
    Schedule Equipment Bed room,  !- Schedule:Week Name 1
    1,                       !- Start Month 1
    1,                       !- Start Day 1
    12,                      !- End Month 1
    31;                      !- End Day 1

Schedule:Year,
    Schedule Lighting Bed room,  !- Name
    Fraction,                !- Schedule Type Limits Name
    Schedule Lighting Bed room,  !- Schedule:Week Name 1
    1,                       !- Start Month 1
    1,                       !- Start Day 1
    12,                      !- End Month 1
    31;                      !- End Day 1


!-   ===========  ALL OBJECTS IN CLASS: SCHEDULE:COMPACT ===========

Schedule:Compact,
    Constant,                !- Name
    on/off,                  !- Schedule Type Limits Name
    Through: 12/31,          !- Field 1
    For: AllDays,            !- Field 2
    Until: 24:00,            !- Field 3
    1.0;                     !- Field 4

Schedule:Compact,
    Continuous,              !- Name
    on/off,                  !- Schedule Type Limits Name
    Through: 12/31,          !- Field 1
    For: AllDays,            !- Field 2
    Until: 24:00,            !- Field 3
    1.0;                     !- Field 4

Schedule:Compact,
    Daytime Ventilation,     !- Name
    Fraction,                !- Schedule Type Limits Name
    Through: 12/31,          !- Field 1
    For: Weekdays SummerDesignDay,  !- Field 2
    Until: 08:00,            !- Field 3
    0.0,                     !- Field 4
    Until: 18:00,            !- Field 5
    1.0,                     !- Field 6
    Until: 24:00,            !- Field 7
    0.0,                     !- Field 8
    For: Weekends WinterDesignDay,  !- Field 9
    Until: 10:00,            !- Field 10
    0.0,                     !- Field 11
    Until: 16:00,            !- Field 12
    1.0,                     !- Field 13
    Until: 24:00,            !- Field 14
    0.0,                     !- Field 15
    For: Holidays AllOtherDays,  !- Field 16
    Until: 24:00,            !- Field 17
    0.0;                     !- Field 18

Schedule:Compact,
    Intermittent,            !- Name
    Fraction,                !- Schedule Type Limits Name
    Through: 12/31,          !- Field 1
    For: AllDays,            !- Field 2
    Until: 08:00,            !- Field 3
    0.0,                     !- Field 4
    Until: 18:00,            !- Field 5
    1.0,                     !- Field 6
    Until: 24:00,            !- Field 7
    0.0;                     !- Field 8

Schedule:Compact,
    Maximum Outside Air,     !- Name
    Fraction,                !- Schedule Type Limits Name
    Through: 12/31,          !- Field 1
    For: AllDays,            !- Field 2
    Until: 24:00,            !- Field 3
    1.0;                     !- Field 4

Schedule:Compact,
    Minimum Outside Air,     !- Name
    Fraction,                !- Schedule Type Limits Name
    Through: 12/31,          !- Field 1
    For: Weekdays SummerDesignDay,  !- Field 2
    Until: 24:00,            !- Field 3
    0.15,                    !- Field 4
    For: Weekends WinterDesignDay Holidays AllOtherDays,  !- Field 5
    Until: 24:00,            !- Field 6
    0.05;                    !- Field 7

Schedule:Compact,
    Off,                     !- Name
    on/off,                  !- Schedule Type Limits Name
    Through: 12/31,          !- Field 1
    For: AllDays,            !- Field 2
    Until: 24:00,            !- Field 3
    0.0;                     !- Field 4

Schedule:Compact,
    On,                      !- Name
    Fraction,                !- Schedule Type Limits Name
    Through: 12/31,          !- Field 1
    For: AllDays,            !- Field 2
    Until: 24:00,            !- Field 3
    1.0;                     !- Field 4

Schedule:Compact,
    VAV Minimum Air Fraction,!- Name
    Fraction,                !- Schedule Type Limits Name
    Through: 12/31,          !- Field 1
    For: AllDays,            !- Field 2
    Until: 24:00,            !- Field 3
    0.1;                     !- Field 4

Schedule:Compact,
    Assembly HVAC,           !- Name
    on/off,                  !- Schedule Type Limits Name
    Through: 12/31,          !- Field 1
    For: Weekdays SummerDesignDay,  !- Field 2
    Until: 05:00,            !- Field 3
    0.0,                     !- Field 4
    Until: 23:00,            !- Field 5
    1.0,                     !- Field 6
    Until: 24:00,            !- Field 7
    0.0,                     !- Field 8
    For: Saturday WinterDesignDay,  !- Field 9
    Until: 06:00,            !- Field 10
    0.0,                     !- Field 11
    Until: 23:00,            !- Field 12
    1.0,                     !- Field 13
    Until: 24:00,            !- Field 14
    0.0,                     !- Field 15
    For: Sunday Holidays AllOtherDays,  !- Field 16
    Until: 06:00,            !- Field 17
    0.0,                     !- Field 18
    Until: 23:00,            !- Field 19
    1.0,                     !- Field 20
    Until: 24:00,            !- Field 21
    0.0;                     !- Field 22

Schedule:Compact,
    Assembly Lighting,       !- Name
    Fraction,                !- Schedule Type Limits Name
    Through: 12/31,          !- Field 1
    For: Weekdays SummerDesignDay,  !- Field 2
    Until: 08:00,            !- Field 3
    0.0,                     !- Field 4
    Until: 11:00,            !- Field 5
    0.4,                     !- Field 6
    Until: 22:00,            !- Field 7
    0.75,                    !- Field 8
    Until: 23:00,            !- Field 9
    0.25,                    !- Field 10
    Until: 24:00,            !- Field 11
    0.0,                     !- Field 12
    For: Saturday WinterDesignDay,  !- Field 13
    Until: 07:00,            !- Field 14
    0.0,                     !- Field 15
    Until: 09:00,            !- Field 16
    0.3,                     !- Field 17
    Until: 23:00,            !- Field 18
    0.5,                     !- Field 19
    Until: 24:00,            !- Field 20
    0.0,                     !- Field 21
    For: Sunday Holidays AllOtherDays,  !- Field 22
    Until: 07:00,            !- Field 23
    0.0,                     !- Field 24
    Until: 12:00,            !- Field 25
    0.3,                     !- Field 26
    Until: 22:00,            !- Field 27
    0.65,                    !- Field 28
    Until: 24:00,            !- Field 29
    0.0;                     !- Field 30

Schedule:Compact,
    Assembly Occupancy,      !- Name
    Fraction,                !- Schedule Type Limits Name
    Through: 12/31,          !- Field 1
    For: Weekdays SummerDesignDay,  !- Field 2
    Until: 08:00,            !- Field 3
    0.0,                     !- Field 4
    Until: 12:00,            !- Field 5
    0.2,                     !- Field 6
    Until: 18:00,            !- Field 7
    0.8,                     !- Field 8
    Until: 22:00,            !- Field 9
    0.2,                     !- Field 10
    Until: 23:00,            !- Field 11
    0.1,                     !- Field 12
    Until: 24:00,            !- Field 13
    0.0,                     !- Field 14
    For: Saturday WinterDesignDay,  !- Field 15
    Until: 08:00,            !- Field 16
    0.0,                     !- Field 17
    Until: 12:00,            !- Field 18
    0.2,                     !- Field 19
    Until: 21:00,            !- Field 20
    0.6,                     !- Field 21
    Until: 22:00,            !- Field 22
    0.8,                     !- Field 23
    Until: 23:00,            !- Field 24
    0.1,                     !- Field 25
    Until: 24:00,            !- Field 26
    0.0,                     !- Field 27
    For: Sunday Holidays AllOtherDays,  !- Field 28
    Until: 08:00,            !- Field 29
    0.0,                     !- Field 30
    Until: 13:00,            !- Field 31
    0.1,                     !- Field 32
    Until: 22:00,            !- Field 33
    0.7,                     !- Field 34
    Until: 23:00,            !- Field 35
    0.2,                     !- Field 36
    Until: 24:00,            !- Field 37
    0.0;                     !- Field 38

Schedule:Compact,
    Assembly SWH,            !- Name
    Fraction,                !- Schedule Type Limits Name
    Through: 12/31,          !- Field 1
    For: Weekdays SummerDesignDay,  !- Field 2
    Until: 09:00,            !- Field 3
    0.0,                     !- Field 4
    Until: 11:00,            !- Field 5
    0.05,                    !- Field 6
    Until: 12:00,            !- Field 7
    0.35,                    !- Field 8
    Until: 17:00,            !- Field 9
    0.05,                    !- Field 10
    Until: 24:00,            !- Field 11
    0.0,                     !- Field 12
    For: Saturday WinterDesignDay,  !- Field 13
    Until: 09:00,            !- Field 14
    0.0,                     !- Field 15
    Until: 11:00,            !- Field 16
    0.05,                    !- Field 17
    Until: 12:00,            !- Field 18
    0.2,                     !- Field 19
    Until: 19:00,            !- Field 20
    0.0,                     !- Field 21
    Until: 20:00,            !- Field 22
    0.65,                    !- Field 23
    Until: 21:00,            !- Field 24
    0.3,                     !- Field 25
    Until: 24:00,            !- Field 26
    0.0,                     !- Field 27
    For: Sunday Holidays AllOtherDays,  !- Field 28
    Until: 09:00,            !- Field 29
    0.0,                     !- Field 30
    Until: 11:00,            !- Field 31
    0.05,                    !- Field 32
    Until: 12:00,            !- Field 33
    0.1,                     !- Field 34
    Until: 20:00,            !- Field 35
    0.0,                     !- Field 36
    Until: 21:00,            !- Field 37
    0.65,                    !- Field 38
    Until: 22:00,            !- Field 39
    0.3,                     !- Field 40
    Until: 24:00,            !- Field 41
    0.0;                     !- Field 42

Schedule:Compact,
    Health HVAC,             !- Name
    on/off,                  !- Schedule Type Limits Name
    Through: 12/31,          !- Field 1
    For: AllDays,            !- Field 2
    Until: 24:00,            !- Field 3
    1.0;                     !- Field 4

Schedule:Compact,
    Health Lighting,         !- Name
    Fraction,                !- Schedule Type Limits Name
    Through: 12/31,          !- Field 1
    For: Weekdays SummerDesignDay,  !- Field 2
    Until: 07:00,            !- Field 3
    0.1,                     !- Field 4
    Until: 08:00,            !- Field 5
    0.5,                     !- Field 6
    Until: 16:00,            !- Field 7
    0.9,                     !- Field 8
    Until: 23:00,            !- Field 9
    0.3,                     !- Field 10
    Until: 24:00,            !- Field 11
    0.1,                     !- Field 12
    For: Saturday WinterDesignDay,  !- Field 13
    Until: 07:00,            !- Field 14
    0.1,                     !- Field 15
    Until: 08:00,            !- Field 16
    0.2,                     !- Field 17
    Until: 18:00,            !- Field 18
    0.4,                     !- Field 19
    Until: 24:00,            !- Field 20
    0.1,                     !- Field 21
    For: Sunday Holidays AllOtherDays,  !- Field 22
    Until: 08:00,            !- Field 23
    0.05,                    !- Field 24
    Until: 16:00,            !- Field 25
    0.1,                     !- Field 26
    Until: 24:00,            !- Field 27
    0.05;                    !- Field 28

Schedule:Compact,
    Health Occupancy,        !- Name
    Fraction,                !- Schedule Type Limits Name
    Through: 12/31,          !- Field 1
    For: Weekdays SummerDesignDay,  !- Field 2
    Until: 07:00,            !- Field 3
    0.0,                     !- Field 4
    Until: 08:00,            !- Field 5
    0.1,                     !- Field 6
    Until: 09:00,            !- Field 7
    0.5,                     !- Field 8
    Until: 17:00,            !- Field 9
    0.8,                     !- Field 10
    Until: 18:00,            !- Field 11
    0.5,                     !- Field 12
    Until: 20:00,            !- Field 13
    0.3,                     !- Field 14
    Until: 22:00,            !- Field 15
    0.2,                     !- Field 16
    Until: 24:00,            !- Field 17
    0.0,                     !- Field 18
    For: Saturday WinterDesignDay,  !- Field 19
    Until: 07:00,            !- Field 20
    0.0,                     !- Field 21
    Until: 08:00,            !- Field 22
    0.1,                     !- Field 23
    Until: 09:00,            !- Field 24
    0.3,                     !- Field 25
    Until: 17:00,            !- Field 26
    0.4,                     !- Field 27
    Until: 19:00,            !- Field 28
    0.1,                     !- Field 29
    Until: 24:00,            !- Field 30
    0.0,                     !- Field 31
    For: Sunday Holidays AllOtherDays,  !- Field 32
    Until: 08:00,            !- Field 33
    0.0,                     !- Field 34
    Until: 16:00,            !- Field 35
    0.05,                    !- Field 36
    Until: 24:00,            !- Field 37
    0.0;                     !- Field 38

Schedule:Compact,
    Health SWH,              !- Name
    Fraction,                !- Schedule Type Limits Name
    Through: 12/31,          !- Field 1
    For: Weekdays SummerDesignDay,  !- Field 2
    Until: 07:00,            !- Field 3
    0.1,                     !- Field 4
    Until: 08:00,            !- Field 5
    0.17,                    !- Field 6
    Until: 09:00,            !- Field 7
    0.58,                    !- Field 8
    Until: 10:00,            !- Field 9
    0.66,                    !- Field 10
    Until: 11:00,            !- Field 11
    0.78,                    !- Field 12
    Until: 12:00,            !- Field 13
    0.82,                    !- Field 14
    Until: 13:00,            !- Field 15
    0.71,                    !- Field 16
    Until: 14:00,            !- Field 17
    0.82,                    !- Field 18
    Until: 15:00,            !- Field 19
    0.78,                    !- Field 20